@<TRIPOS>MOLECULE
6WPJ
 80 83 0 0 0
SMALL
USER_CHARGES

@<TRIPOS>ATOM
      1 PA         46.0000    1.0340  -24.9790 P.3     1  D4T6011     0.4835
      2 PB         45.3840   -1.6650  -24.3370 P.3     1  D4T6011     0.4918
      3 PC         48.0510   -2.5840  -24.3960 P.3     1  D4T6011     0.4808
      4 O7'        46.5200   -2.6310  -24.8210 O.3     1  D4T6011    -0.1859
      5 O6'        45.4760   -0.4130  -25.3270 O.3     1  D4T6011    -0.1858
      6 C5'        44.0610    1.9580  -23.5290 C.3     1  D4T6011     0.0853
      7 O5'        44.6480    1.9020  -24.8000 O.3     1  D4T6011    -0.2838
      8 C4'        42.5830    1.7270  -23.6400 C.3     1  D4T6011     0.0851
      9 O4'        41.9100    2.8840  -24.4840 O.3     1  D4T6011    -0.3510
     10 C3'        42.3330    0.6640  -24.2970 C.3     1  D4T6011    -0.0202
     11 C2'        41.1710    0.8580  -25.1650 C.3     1  D4T6011    -0.0048
     12 C1'        40.9620    2.1290  -25.4120 C.3     1  D4T6011     0.1398
     13 N1         41.3000    2.5420  -26.7760 N.ar    1  D4T6011    -0.2738
     14 O1A        46.8160    1.5470  -26.1730 O.3     1  D4T6011    -0.3022
     15 O1B        43.9760   -2.2700  -24.4690 O.3     1  D4T6011    -0.3019
     16 O1C        48.4010   -3.7780  -23.5010 O.3     1  D4T6011    -0.3023
     17 C2         40.3560    2.5250  -27.7730 C.ar    1  D4T6011     0.3313
     18 O2         39.2430    2.1680  -27.5460 O.2     1  D4T6011    -0.2464
     19 O2A        46.8650    1.0150  -23.7280 O.2     1  D4T6011    -0.2269
     20 O2B        45.5940   -1.2860  -22.8950 O.2     1  D4T6011    -0.2265
     21 O2C        48.3170   -1.3230  -23.5760 O.3     1  D4T6011    -0.3023
     22 N3         40.7020    2.9370  -29.0370 N.ar    1  D4T6011    -0.2747
     23 O3C        48.8900   -2.6390  -25.6440 O.2     1  D4T6011    -0.2271
     24 C4         41.9710    3.3530  -29.3190 C.ar    1  D4T6011     0.2568
     25 O4         42.2640    3.7030  -30.4430 O.2     1  D4T6011    -0.2674
     26 C5         42.9180    3.3650  -28.3230 C.ar    1  D4T6011     0.0302
     27 C5A        44.3560    3.8300  -28.6210 C.3     1  D4T6011    -0.0332
     28 C6         42.5610    2.9540  -27.0490 C.ar    1  D4T6011     0.0199
     29 P          49.1510    8.2830  -26.2810 P.3     2  DDG8222     0.3187
     30 C5'        47.8140    7.2470  -24.2790 C.3     2  DDG8222     0.0830
     31 O5'        47.7890    7.7480  -25.6050 O.3     2  DDG8222    -0.3074
     32 C4'        46.4040    6.8550  -23.8750 C.3     2  DDG8222     0.0850
     33 O4'        45.4220    7.6410  -24.5530 O.3     2  DDG8222    -0.3510
     34 C3'        46.1490    5.4010  -24.2560 C.3     2  DDG8222    -0.0203
     35 C2'        44.6810    5.3770  -24.6550 C.3     2  DDG8222    -0.0048
     36 C1'        44.3030    6.8270  -24.9440 C.3     2  DDG8222     0.1383
     37 N1         40.5680    6.5090  -28.6130 N.ar    2  DDG8222    -0.2934
     38 C2         40.4750    6.3190  -27.2810 C.ar    2  DDG8222     0.1950
     39 N2         39.2630    6.0040  -26.7680 N.pl3   2  DDG8222    -0.3289
     40 N3         41.5440    6.4390  -26.4480 N.ar    2  DDG8222    -0.1963
     41 C4         42.7710    6.7610  -26.9380 C.ar    2  DDG8222     0.1711
     42 C5         42.9230    6.9840  -28.3920 C.ar    2  DDG8222     0.1721
     43 C6         41.7130    6.8330  -29.2240 C.ar    2  DDG8222     0.2803
     44 O6         41.7550    7.0030  -30.4630 O.2     2  DDG8222    -0.2654
     45 N7         44.2140    7.2930  -28.6220 N.ar    2  DDG8222    -0.2286
     46 C8         44.8250    7.2650  -27.4020 C.ar    2  DDG8222     0.1004
     47 N9         43.9740    6.9520  -26.3950 N.ar    2  DDG8222    -0.2879
     48 OP1        50.2540    7.9910  -25.3010 O.3     2  DDG8222    -0.3259
     49 OP2        49.2470    7.6620  -27.6430 O.2     2  DDG8222    -0.2620
     50 H          44.4924    1.2033  -22.9051 H       1  D4T6011     0.0591
     51 H          44.2361    2.9232  -23.1017 H       1  D4T6011     0.0591
     52 H          42.2093    1.6746  -22.6387 H       1  D4T6011     0.0620
     53 H          42.1318   -0.1336  -23.6127 H       1  D4T6011     0.0292
     54 H          43.1814    0.4251  -24.9036 H       1  D4T6011     0.0292
     55 H          40.3062    0.4505  -24.6844 H       1  D4T6011     0.0309
     56 H          41.3598    0.3622  -26.0942 H       1  D4T6011     0.0309
     57 H          39.9198    2.3274  -25.2729 H       1  D4T6011     0.0839
     58 H          47.1481    2.4375  -25.9790 H       1  D4T6011     0.2220
     59 H          43.3182   -1.6296  -24.1558 H       1  D4T6011     0.2220
     60 H          47.8624   -3.7467  -22.6949 H       1  D4T6011     0.2220
     61 H          47.7574   -1.3285  -22.7837 H       1  D4T6011     0.2220
     62 H          40.0239    2.9321  -29.7507 H       1  D4T6011     0.1734
     63 H          44.4353    4.1055  -29.6519 H       1  D4T6011     0.0280
     64 H          45.0391    3.0336  -28.4111 H       1  D4T6011     0.0280
     65 H          44.5924    4.6739  -28.0071 H       1  D4T6011     0.0280
     66 H          43.2669    2.9619  -26.2963 H       1  D4T6011     0.0816
     67 H          49.2198    9.6410  -26.5164 H       2  DDG8222     0.1593
     68 H          48.4529    6.3900  -24.2308 H       2  DDG8222     0.0591
     69 H          48.1860    7.9985  -23.6144 H       2  DDG8222     0.0591
     70 H          46.3249    7.0100  -22.8193 H       2  DDG8222     0.0620
     71 H          46.3275    4.7528  -23.4236 H       2  DDG8222     0.0292
     72 H          46.7942    5.0613  -25.0391 H       2  DDG8222     0.0292
     73 H          44.0844    4.9889  -23.8561 H       2  DDG8222     0.0309
     74 H          44.5152    4.7504  -25.5063 H       2  DDG8222     0.0309
     75 H          43.4410    7.1484  -24.3977 H       2  DDG8222     0.0839
     76 H          39.7564    6.4045  -29.1604 H       2  DDG8222     0.1716
     77 H          38.4843    5.9152  -27.3638 H       2  DDG8222     0.1451
     78 H          39.1600    5.8636  -25.7990 H       2  DDG8222     0.1451
     79 H          45.8283    7.4613  -27.2613 H       2  DDG8222     0.1030
     80 H          50.2590    7.0436  -25.0927 H       2  DDG8222     0.2195
@<TRIPOS>BOND
     1     1     7    1
     2     1    14    1
     3     1    19    2
     4     2     5    1
     5     2    15    1
     6     2    20    2
     7     3     4    1
     8     3    16    1
     9     3    21    1
    10     3    23    2
    11     2     4    1
    12     1     5    1
    13     6     8    1
    14     6     7    1
    15     8     9    1
    16     8    10    1
    17     9    12    1
    18    10    11    1
    19    11    12    1
    20    12    13    1
    21    13    17   ar
    22    13    28   ar
    23    17    18    2
    24    17    22   ar
    25    22    24   ar
    26    24    25    2
    27    24    26   ar
    28    26    27    1
    29    26    28   ar
    30    29    31    1
    31    29    48    1
    32    29    49    2
    33    30    32    1
    34    30    31    1
    35    32    33    1
    36    32    34    1
    37    33    36    1
    38    34    35    1
    39    35    36    1
    40    36    47    1
    41    37    38   ar
    42    38    39    1
    43    38    40   ar
    44    40    41   ar
    45    41    42   ar
    46    42    43   ar
    47    37    43   ar
    48    43    44    2
    49    42    45   ar
    50    45    46   ar
    51    41    47   ar
    52    46    47   ar
    53     6    50    1
    54     6    51    1
    55     8    52    1
    56    10    53    1
    57    10    54    1
    58    11    55    1
    59    11    56    1
    60    12    57    1
    61    14    58    1
    62    15    59    1
    63    16    60    1
    64    21    61    1
    65    22    62    1
    66    27    63    1
    67    27    64    1
    68    27    65    1
    69    28    66    1
    70    29    67    1
    71    30    68    1
    72    30    69    1
    73    32    70    1
    74    34    71    1
    75    34    72    1
    76    35    73    1
    77    35    74    1
    78    36    75    1
    79    37    76    1
    80    39    77    1
    81    39    78    1
    82    46    79    1
    83    48    80    1
